%rwf=/Storage01/nayara/chalcona
%int=/Storage01/nayara/chalcona
%d2e=/Storage01/nayara/chalcona
%nosave
%nprocshared=8
%mem=12GB
%chk=benz
# freq=noraman b3lyp/6-31+G** volume scrf=(smd,solvent=water) scf=xqc

Title Card Required

-1 1
 O                  0.00000000    0.00000000    0.10749700
 H                  0.00000000    0.00000000   -0.85997500

 