%rwf=/Storage01/hugo/chalcona_deut
%int=/Storage01/hugo/chalcona_deut
%d2e=/Storage01/hugo/chalcona_deut
%nosave
%nprocshared=8
%mem=16GB
%chk=prod3
# opt freq=noraman X3LYP/6-31+G(d) volume scrf=(smd,solvent=water) scf=xqc 

prod3

0 1
 C                 -3.32108000   -0.05899000    1.13099900
 C                 -2.56310100    0.28377200    0.00447500
 C                 -3.02956200   -0.10260100   -1.26232100
 C                 -4.21772100   -0.82351800   -1.39978600
 C                 -4.96434600   -1.16801400   -0.26724100
 C                 -4.51279600   -0.78115400    0.99700600
 H                 -2.99739500    0.24660600    2.12122500
 H                 -2.46175100    0.16812100   -2.14975100
 H                 -4.56402600   -1.10875700   -2.38912400
 H                 -5.89061200   -1.72543500   -0.37130900
 H                 -5.08789000   -1.03606000    1.88267100
 C                  1.27460800    0.81490300   -0.32777100
 C                  2.56354600    0.07877800   -0.12881400
 C                  2.61043800   -1.28229300    0.22124200
 C                  3.77065900    0.77636800   -0.31890300
 C                  3.83817000   -1.93037100    0.37370900
 H                  1.69751400   -1.84884300    0.36658000
 C                  4.99478500    0.13136900   -0.15720900
 H                  3.73050900    1.82567200   -0.59072000
 C                  5.03098200   -1.22543300    0.18808200
 H                  3.86211500   -2.98310200    0.63791000
 H                  5.91993100    0.68145800   -0.30043300
 H                  5.98481200   -1.72978600    0.31162800
 O                  1.27314800    1.96076500   -0.76980900
 C                 -0.03867800    0.10079900   -0.01607400
 H(Iso=2)          -0.21302700   -0.61959900   -0.82641800
 H(Iso=2)           0.05317100   -0.49771200    0.89793700
 C                 -1.24489600    1.04562000    0.10858700
 H                 -1.19762700    1.76924700   -0.70952100
 O                 -1.14714000    1.84332300    1.29314600
 H(Iso=2)          -0.98982800    1.27006600    2.05674200


