%rwf=/Storage01/hugo/chalcona_deut
%int=/Storage01/hugo/chalcona_deut
%d2e=/Storage01/hugo/chalcona_deut
%nosave
%nprocshared=8
%mem=16GB
%chk=prod2
# opt freq=noraman X3LYP/6-31+G(d) volume scrf=(smd,solvent=water) scf=xqc 

prod2

-1 1
 C                  2.44303000    0.36249200   -0.14950900
 C                  3.71073900    0.97146200   -0.17734900
 C                  4.86776000    0.19568300   -0.23662900
 C                  4.77284000   -1.20211700   -0.25112900
 C                  3.51715000   -1.81613800   -0.20657900
 C                  2.35561000   -1.03966800   -0.16650900
 C                  1.21955900    1.22553100   -0.09121900
 C                 -0.12356100    0.66885100   -0.46598900
 O                  1.32178900    2.40609100    0.27192100
 H(Iso=2)          -0.04682000   -0.18719900   -1.14178900
 H                  3.77228900    2.05478200   -0.15834900
 H                  5.84182900    0.67529300   -0.27037900
 H                  5.67380000   -1.80760700   -0.29551900
 H                  3.44214100   -2.89988800   -0.20313900
 H                  1.37964000   -1.50699900   -0.09000900
 H(Iso=2)          -0.66742100    1.47324000   -0.97055900
 C                 -4.24523000   -1.49342100   -0.33055900
 C                 -2.93688000   -1.29632100    0.12767100
 C                 -2.42367000   -0.00682000    0.31599100
 C                 -3.26433100    1.08565900    0.04762100
 C                 -4.57397100    0.89869900   -0.40522900
 C                 -5.07048000   -0.39641200   -0.60036900
 H                 -4.62319900   -2.50346100   -0.47103900
 H                 -2.29382900   -2.13931000    0.36320100
 H                 -2.89077100    2.09708900    0.20126100
 H                 -5.20839100    1.75983800   -0.60079900
 H                 -6.08837000   -0.54640200   -0.95021900
 C                 -0.97341000    0.19541000    0.81970100
 O                 -0.43820000   -0.86952000    1.44798100
 H                 -1.01055100    1.12072000    1.44862100


